Version 4
SHEET 1 880 680
WIRE -304 -208 -304 -272
WIRE -304 -112 -304 -128
WIRE 128 144 128 80
WIRE 176 144 128 144
WIRE 384 144 384 80
WIRE 416 144 384 144
WIRE 608 144 608 80
WIRE 656 144 608 144
WIRE 352 160 288 160
WIRE 576 160 528 160
WIRE 848 160 768 160
WIRE 128 176 128 144
WIRE 176 176 128 176
WIRE 384 176 384 144
WIRE 416 176 384 176
WIRE 608 176 608 144
WIRE 656 176 608 176
WIRE 176 208 -432 208
WIRE 352 208 352 160
WIRE 416 208 352 208
WIRE 576 208 576 160
WIRE 656 208 576 208
WIRE 176 240 128 240
WIRE 416 240 368 240
WIRE 656 240 576 240
WIRE 848 256 848 160
WIRE -432 288 -432 208
WIRE 128 320 128 240
WIRE 128 320 80 320
WIRE 368 320 368 240
WIRE 368 320 128 320
WIRE 576 320 576 240
WIRE 576 320 368 320
WIRE -432 416 -432 368
FLAG -304 -112 0
FLAG -304 -272 VDD
IOPIN -304 -272 In
FLAG 128 80 VDD
IOPIN 128 80 In
FLAG 384 80 VDD
IOPIN 384 80 In
FLAG 608 80 VDD
IOPIN 608 80 In
FLAG 80 320 VDD
IOPIN 80 320 In
FLAG -432 416 0
SYMBOL FF 224 192 R0
SYMATTR InstName X1
SYMBOL FF 464 192 R0
SYMATTR InstName X2
SYMBOL FF 704 192 R0
SYMATTR InstName X3
SYMBOL voltage -304 -224 R0
WINDOW 123 0 0 Left 0
WINDOW 39 0 0 Left 0
SYMATTR InstName V1
SYMATTR Value 1.2
SYMBOL voltage -432 272 R0
WINDOW 123 0 0 Left 0
WINDOW 39 0 0 Left 0
SYMATTR InstName V2
SYMATTR Value PULSE(0 1.2 0 100n 100n 0.5m 1m)
TEXT -466 440 Left 2 !.tran 20m
