Version 4
SHEET 1 880 680
WIRE 16 0 -32 0
WIRE 112 0 96 0
WIRE -32 16 -32 0
WIRE 112 160 112 0
WIRE 144 160 112 160
WIRE 368 176 288 176
WIRE 144 192 32 192
WIRE 32 240 32 192
WIRE 32 368 32 320
WIRE 368 368 368 320
FLAG -32 16 0
FLAG 368 368 0
FLAG 32 368 0
SYMBOL bias_inverter 208 176 R0
SYMATTR InstName X1
SYMBOL voltage 112 0 R90
WINDOW 0 -32 56 VBottom 2
WINDOW 3 32 56 VTop 2
WINDOW 123 0 0 Left 0
WINDOW 39 0 0 Left 0
SYMATTR InstName V1
SYMATTR Value 1.2
SYMBOL voltage 32 224 R0
WINDOW 123 0 0 Left 0
WINDOW 39 0 0 Left 0
SYMATTR InstName V2
SYMATTR Value 1
SYMBOL res 352 224 R0
SYMATTR InstName R1
SYMATTR Value 1000k
TEXT -288 -24 Left 2 !.dc V2 0 1.2 0.1
