Version 4
SHEET 1 2116 680
WIRE -624 -320 -624 -352
WIRE 256 -256 -416 -256
WIRE 944 -256 320 -256
WIRE 1008 -256 944 -256
WIRE -624 -224 -624 -240
WIRE -352 -80 -352 -96
WIRE -304 -80 -352 -80
WIRE 1792 -80 1792 -96
WIRE 1856 -80 1792 -80
WIRE 1424 -64 1424 -80
WIRE 1488 -64 1424 -64
WIRE 1792 -64 1792 -80
WIRE -416 -48 -416 -256
WIRE -304 -48 -416 -48
WIRE 48 -48 -176 -48
WIRE 240 -48 112 -48
WIRE 592 -48 240 -48
WIRE 720 -48 720 -64
WIRE 784 -48 720 -48
WIRE 1072 -48 1072 -64
WIRE 1136 -48 1072 -48
WIRE 1424 -48 1424 -64
WIRE 720 -32 720 -48
WIRE 1072 -32 1072 -48
WIRE -304 -16 -880 -16
WIRE 1856 -16 1856 -80
WIRE 1856 -16 1792 -16
WIRE 1488 0 1488 -64
WIRE 1488 0 1424 0
WIRE 784 16 784 -48
WIRE 784 16 720 16
WIRE 1136 16 1136 -48
WIRE 1136 16 1072 16
WIRE 1744 16 1664 16
WIRE 1376 32 1296 32
WIRE 240 48 240 -48
WIRE 592 48 592 -48
WIRE 672 48 592 48
WIRE 944 48 944 -256
WIRE 1024 48 944 48
WIRE -880 80 -880 -16
WIRE 720 96 720 64
WIRE 944 96 944 48
WIRE 944 96 720 96
WIRE 1072 96 1072 64
WIRE 1296 96 1296 32
WIRE 1296 96 1072 96
WIRE 1424 96 1424 48
WIRE 1600 96 1424 96
WIRE 1664 96 1664 16
WIRE 1664 96 1600 96
WIRE 1792 96 1792 32
WIRE 2112 96 1792 96
WIRE 1792 112 1792 96
WIRE 1424 128 1424 96
WIRE 720 144 720 96
WIRE 1072 144 1072 96
WIRE 240 160 240 128
WIRE 1920 160 1792 160
WIRE 1552 176 1424 176
WIRE 1920 176 1920 160
WIRE 848 192 720 192
WIRE 1200 192 1072 192
WIRE 1552 192 1552 176
WIRE 1664 192 1664 96
WIRE 1744 192 1664 192
WIRE -880 208 -880 160
WIRE 848 208 848 192
WIRE 1200 208 1200 192
WIRE 1296 208 1296 96
WIRE 1376 208 1296 208
WIRE 592 224 592 48
WIRE 672 224 592 224
WIRE 944 224 944 96
WIRE 1024 224 944 224
WIRE 1792 224 1792 208
WIRE 1424 240 1424 224
WIRE 720 256 720 240
WIRE 1072 256 1072 240
WIRE 1600 336 1600 96
WIRE 2112 336 1600 336
FLAG 720 256 0
FLAG 848 208 0
FLAG 720 -64 Vdd
FLAG -624 -224 0
FLAG -624 -352 vdd
FLAG -352 -96 vdd
FLAG 240 160 0
FLAG -880 208 0
FLAG 1072 256 0
FLAG 1200 208 0
FLAG 1072 -64 Vdd
FLAG 1424 240 0
FLAG 1552 192 0
FLAG 1424 -80 Vdd
FLAG 1792 224 0
FLAG 1920 176 0
FLAG 1792 -96 Vdd
SYMBOL nmos4 672 144 R0
SYMATTR InstName M1
SYMATTR Value2 l=200n w=2u
SYMBOL pmos4 672 -32 R0
SYMATTR InstName M2
SYMATTR Value2 l=200n w=4u
SYMBOL nand -240 -48 R0
SYMATTR InstName X1
SYMBOL voltage -624 -336 R0
WINDOW 123 0 0 Left 0
WINDOW 39 0 0 Left 0
SYMATTR InstName V1
SYMATTR Value 1.2
SYMBOL cap 112 -64 R90
WINDOW 0 0 32 VBottom 2
WINDOW 3 32 32 VTop 2
SYMATTR InstName C1
SYMATTR Value 100p
SYMBOL res 224 32 R0
SYMATTR InstName R1
SYMATTR Value 100k
SYMBOL voltage -880 64 R0
WINDOW 123 0 0 Left 0
WINDOW 39 0 0 Left 0
SYMATTR InstName V2
SYMATTR Value PULSE(1.2 0 1m 50n 50n 1m 2m)
SYMBOL diode 320 -272 R90
WINDOW 0 0 32 VBottom 2
WINDOW 3 32 32 VTop 2
SYMATTR InstName D1
SYMBOL nmos4 1024 144 R0
SYMATTR InstName M3
SYMATTR Value2 l=200n w=2u
SYMBOL pmos4 1024 -32 R0
SYMATTR InstName M4
SYMATTR Value2 l=200n w=4u
SYMBOL nmos4 1376 128 R0
SYMATTR InstName M5
SYMATTR Value2 l=200n w=2u
SYMBOL pmos4 1376 -48 R0
SYMATTR InstName M6
SYMATTR Value2 l=200n w=4u
SYMBOL nmos4 1744 112 R0
SYMATTR InstName M7
SYMATTR Value2 l=200n w=2u
SYMBOL pmos4 1744 -64 R0
SYMATTR InstName M8
SYMATTR Value2 l=200n w=4u
TEXT -914 280 Left 2 !.tran 12m
